powerflow/Codes/PF_Formulation/resultados_csv/15/9bus_transformer_fields/barras.csv
caso,script,bus_id,vm_pu,va_rad,pd_pu,qd_pu,pg_pu,qg_pu,bus_type
9bus_transformer_fields.pwf,15,1,1.075,0.0,0.0,0.0,1.4249138602465392,0.10878678251316226,3
9bus_transformer_fields.pwf,15,2,1.075,-0.03195053733119328,0.0,0.0,0.9,-0.02595465093060352,2
9bus_transformer_fields.pwf,15,3,1.075,-0.025267298597371327,0.0,0.0,0.85,-0.13735516017397884,2
9bus_transformer_fields.pwf,15,4,1.071893599818958,-0.07128840195682597,0.0,0.0,0.0,0.0,1
9bus_transformer_fields.pwf,15,5,1.050078551206911,-0.13446294403356387,1.25,0.5,0.0,0.0,1
9bus_transformer_fields.pwf,15,6,1.0641654827925358,-0.11692358561907787,0.9,0.3,0.0,0.0,1
9bus_transformer_fields.pwf,15,7,1.077779928380241,-0.08051904439493854,0.0,0.0,0.0,0.0,1
9bus_transformer_fields.pwf,15,8,1.0690932137165186,-0.11105999286667262,1.0,0.35,0.0,0.0,1
9bus_transformer_fields.pwf,15,9,1.083478660355622,-0.06804527197568282,0.0,0.0,0.0,0.0,1
